<?xml version="1.0" encoding="UTF-8"?>

<!-- generated on Sat Apr 18 19:53:38 2015 by SUMO netconvert Version 0.23.0
<?xml version="1.0" encoding="UTF-8"?>

<configuration xmlns:xsi="http://www.w3.org/2001/XMLSchema-instance" xsi:noNamespaceSchemaLocation="http://sumo.dlr.de/xsd/netconvertConfiguration.xsd">

    <input>
        <osm-files value="Vanderbilt.edited.osm"/>
    </input>

    <output>
        <output-file value="Vanderbilt.net.xml"/>
    </output>

    <projection>
        <proj.utm value="true"/>
    </projection>

    <tls_building>
        <tls.green.time value="45"/>
    </tls_building>

    <edge_removal>
        <remove-edges.by-type value="highway.footway,railway.rail"/>
        <remove-edges.isolated value="true"/>
    </edge_removal>

</configuration>
-->

<net version="0.13" xmlns:xsi="http://www.w3.org/2001/XMLSchema-instance" xsi:noNamespaceSchemaLocation="http://sumo.dlr.de/xsd/net_file.xsd">

    <location netOffset="-514196.31,-3996895.91" convBoundary="0.00,0.00,7437.25,4686.33" origBoundary="-86.860450,36.116562,-86.759558,36.170595" projParameter="+proj=utm +zone=16 +ellps=WGS84 +datum=WGS84 +units=m +no_defs"/>

    <edge id=":1345495402_0" function="internal">
        <lane id=":1345495402_0_0" index="0" speed="27.78" length="4.47" shape="3997.76,3702.43 3998.21,3697.98"/>
    </edge>
    <edge id=":1345495402_1" function="internal">
        <lane id=":1345495402_1_0" index="0" speed="27.78" length="2.41" shape="4000.21,3700.22 4000.00,3698.75 4000.33,3697.89"/>
    </edge>
    <edge id=":1345495402_4" function="internal">
        <lane id=":1345495402_4_0" index="0" speed="27.78" length="2.41" shape="4000.33,3697.89 4001.22,3697.64 4002.66,3698.01"/>
    </edge>
    <edge id=":1345495402_2" function="internal">
        <lane id=":1345495402_2_0" index="0" speed="27.78" length="2.99" shape="4000.67,3695.79 4002.66,3698.01"/>
    </edge>
    <edge id=":1345495402_3" function="internal">
        <lane id=":1345495402_3_0" index="0" speed="27.78" length="3.19" shape="4000.67,3695.79 4000.88,3697.26 4000.54,3698.12 3999.78,3698.32"/>
    </edge>
    <edge id=":1345495402_5" function="internal">
        <lane id=":1345495402_5_0" index="0" speed="27.78" length="1.63" shape="3999.78,3698.32 3999.65,3698.36 3998.21,3697.98"/>
    </edge>
    <edge id=":1348817100_0" function="internal">
        <lane id=":1348817100_0_0" index="0" speed="27.78" length="6.26" shape="4330.24,4154.72 4323.22,4155.24"/>
        <lane id=":1348817100_0_1" index="1" speed="27.78" length="6.26" shape="4331.26,4151.58 4324.83,4152.36"/>
        <lane id=":1348817100_0_2" index="2" speed="27.78" length="6.26" shape="4331.26,4151.58 4326.44,4149.48"/>
    </edge>
    <edge id=":1348817100_3" function="internal">
        <lane id=":1348817100_3_0" index="0" speed="27.78" length="2.63" shape="4331.26,4151.58 4330.34,4150.42 4330.20,4149.51 4330.35,4149.35"/>
    </edge>
    <edge id=":1348817100_8" function="internal">
        <lane id=":1348817100_8_0" index="0" speed="27.78" length="2.19" shape="4330.35,4149.35 4330.85,4148.85 4332.28,4148.45"/>
    </edge>
    <edge id=":1348817100_4" function="internal">
        <lane id=":1348817100_4_0" index="0" speed="27.78" length="3.95" shape="4331.29,4140.84 4334.31,4142.17"/>
        <lane id=":1348817100_4_1" index="1" speed="27.78" length="3.95" shape="4329.67,4143.72 4333.29,4145.31"/>
        <lane id=":1348817100_4_2" index="2" speed="27.78" length="3.95" shape="4328.06,4146.60 4332.28,4148.45"/>
    </edge>
    <edge id=":1348817100_7" function="internal">
        <lane id=":1348817100_7_0" index="0" speed="27.78" length="2.28" shape="4328.06,4146.60 4328.73,4147.93 4328.70,4148.72"/>
    </edge>
    <edge id=":1348817100_9" function="internal">
        <lane id=":1348817100_9_0" index="0" speed="27.78" length="2.54" shape="4328.70,4148.72 4328.69,4148.85 4327.93,4149.36 4326.44,4149.48"/>
    </edge>
    <edge id=":1443088087_0" function="internal">
        <lane id=":1443088087_0_0" index="0" speed="13.89" length="9.55" shape="3619.94,3876.18 3611.77,3871.25"/>
    </edge>
    <edge id=":1443088087_1" function="internal">
        <lane id=":1443088087_1_0" index="0" speed="20.83" length="7.90" shape="3619.94,3876.18 3618.95,3875.12 3618.74,3873.58 3619.30,3871.58 3620.63,3869.09"/>
    </edge>
    <edge id=":1443088087_2" function="internal">
        <lane id=":1443088087_2_0" index="0" speed="13.89" length="4.82" shape="3619.94,3876.18 3619.30,3874.84 3619.38,3873.92 3620.16,3873.43 3621.64,3873.36"/>
    </edge>
    <edge id=":1443088087_3" function="internal">
        <lane id=":1443088087_3_0" index="0" speed="20.83" length="5.11" shape="3613.47,3868.42 3614.75,3868.96 3615.90,3868.95 3616.93,3868.41 3617.84,3867.33"/>
    </edge>
    <edge id=":1443088087_4" function="internal">
        <lane id=":1443088087_4_0" index="0" speed="13.89" length="9.55" shape="3613.47,3868.42 3621.64,3873.36"/>
    </edge>
    <edge id=":1443088087_5" function="internal">
        <lane id=":1443088087_5_0" index="0" speed="13.89" length="4.82" shape="3613.47,3868.42 3614.11,3869.77 3614.03,3870.69 3613.25,3871.18 3611.77,3871.25"/>
    </edge>
    <edge id=":1443088087_6" function="internal">
        <lane id=":1443088087_6_0" index="0" speed="20.83" length="5.02" shape="3612.81,3875.53 3613.34,3874.25 3613.35,3873.12 3612.82,3872.11 3611.77,3871.25"/>
    </edge>
    <edge id=":1443088087_7" function="internal">
        <lane id=":1443088087_7_0" index="0" speed="27.78" length="9.58" shape="3612.81,3875.53 3617.84,3867.33"/>
        <lane id=":1443088087_7_1" index="1" speed="27.78" length="9.58" shape="3615.64,3877.22 3620.63,3869.09"/>
    </edge>
    <edge id=":1443088087_9" function="internal">
        <lane id=":1443088087_9_0" index="0" speed="20.83" length="7.89" shape="3615.64,3877.22 3617.25,3874.92 3618.79,3873.50 3620.25,3872.99 3621.64,3873.36"/>
    </edge>
    <edge id=":1443088091_0" function="internal">
        <lane id=":1443088091_0_0" index="0" speed="20.83" length="9.83" shape="2887.93,2981.27 2887.32,2979.68 2885.97,2978.04 2883.88,2976.36 2881.04,2974.63"/>
    </edge>
    <edge id=":1443088091_1" function="internal">
        <lane id=":1443088091_1_0" index="0" speed="27.78" length="12.11" shape="2887.93,2981.27 2887.39,2977.72 2887.00,2975.29 2886.62,2972.86 2886.05,2969.32"/>
        <lane id=":1443088091_1_1" index="1" speed="27.78" length="12.11" shape="2891.19,2980.77 2890.65,2977.22 2890.27,2974.79 2889.88,2972.36 2889.31,2968.80"/>
    </edge>
    <edge id=":1443088091_3" function="internal">
        <lane id=":1443088091_3_0" index="0" speed="27.78" length="2.41" shape="2891.19,2980.77 2891.82,2979.43 2892.58,2978.90"/>
    </edge>
    <edge id=":1443088091_11" function="internal">
        <lane id=":1443088091_11_0" index="0" speed="27.78" length="2.41" shape="2892.58,2978.90 2893.45,2979.18 2894.45,2980.28"/>
    </edge>
    <edge id=":1443088091_4" function="internal">
        <lane id=":1443088091_4_0" index="0" speed="27.78" length="12.15" shape="2895.83,2967.77 2896.40,2971.34 2896.79,2973.78 2897.17,2976.22 2897.72,2979.79"/>
        <lane id=":1443088091_4_1" index="1" speed="27.78" length="12.15" shape="2892.57,2968.29 2893.14,2971.85 2893.53,2974.28 2893.91,2976.72 2894.45,2980.28"/>
    </edge>
    <edge id=":1443088091_6" function="internal">
        <lane id=":1443088091_6_0" index="0" speed="20.83" length="6.96" shape="2892.57,2968.29 2892.67,2973.87 2891.92,2975.02"/>
    </edge>
    <edge id=":1443088091_7" function="internal">
        <lane id=":1443088091_7_0" index="0" speed="27.78" length="2.41" shape="2892.57,2968.29 2891.95,2969.64 2891.20,2970.17"/>
    </edge>
    <edge id=":1443088091_12" function="internal">
        <lane id=":1443088091_12_0" index="0" speed="20.83" length="12.33" shape="2891.92,2975.02 2890.78,2976.79 2886.90,2977.04 2881.04,2974.63"/>
    </edge>
    <edge id=":1443088091_13" function="internal">
        <lane id=":1443088091_13_0" index="0" speed="27.78" length="2.41" shape="2891.20,2970.17 2890.32,2969.90 2889.31,2968.80"/>
    </edge>
    <edge id=":1443088091_8" function="internal">
        <lane id=":1443088091_8_0" index="0" speed="20.83" length="6.18" shape="2882.62,2971.73 2884.40,2972.44 2885.57,2972.27 2886.12,2971.23 2886.05,2969.32"/>
    </edge>
    <edge id=":1443088091_9" function="internal">
        <lane id=":1443088091_9_0" index="0" speed="20.83" length="14.76" shape="2882.62,2971.73 2887.67,2974.62 2891.33,2977.01 2893.59,2978.90 2894.45,2980.28"/>
    </edge>
    <edge id=":1443088091_10" function="internal">
        <lane id=":1443088091_10_0" index="0" speed="13.89" length="4.82" shape="2882.62,2971.73 2883.31,2973.05 2883.28,2973.97 2882.52,2974.50 2881.04,2974.63"/>
    </edge>
    <edge id=":1443088096_0" function="internal">
        <lane id=":1443088096_0_0" index="0" allow="delivery" speed="16.67" length="5.32" shape="2915.13,3307.08 2913.73,3306.52 2912.58,3306.61 2911.70,3307.35 2911.09,3308.73"/>
    </edge>
    <edge id=":1443088096_1" function="internal">
        <lane id=":1443088096_1_0" index="0" speed="27.78" length="22.41" shape="2915.13,3307.08 2909.35,3303.75 2905.41,3301.45 2901.49,3299.11 2895.76,3295.69"/>
        <lane id=":1443088096_1_1" index="1" speed="27.78" length="22.41" shape="2916.77,3304.21 2911.01,3300.90 2907.08,3298.60 2903.16,3296.27 2897.45,3292.86"/>
        <lane id=":1443088096_1_2" index="2" speed="27.78" length="22.41" shape="2918.41,3301.35 2912.66,3298.04 2908.74,3295.75 2904.84,3293.42 2899.14,3290.02"/>
    </edge>
    <edge id=":1443088096_4" function="internal">
        <lane id=":1443088096_4_0" index="0" speed="27.78" length="5.60" shape="2918.41,3301.35 2915.27,3298.44 2914.70,3297.25"/>
    </edge>
    <edge id=":1443088096_5" function="internal">
        <lane id=":1443088096_5_0" index="0" speed="27.78" length="2.41" shape="2918.41,3301.35 2917.75,3300.02 2917.80,3299.10"/>
    </edge>
    <edge id=":1443088096_18" function="internal">
        <lane id=":1443088096_18_0" index="0" speed="27.78" length="18.40" shape="2914.70,3297.25 2913.03,3293.81 2911.67,3287.46 2911.21,3279.40"/>
    </edge>
    <edge id=":1443088096_19" function="internal">
        <lane id=":1443088096_19_0" index="0" speed="27.78" length="2.41" shape="2917.80,3299.10 2918.57,3298.59 2920.05,3298.49"/>
    </edge>
    <edge id=":1443088096_6" function="internal">
        <lane id=":1443088096_6_0" index="0" speed="27.78" length="16.85" shape="2917.81,3279.39 2918.16,3284.05 2919.20,3287.84 2920.92,3290.74 2923.33,3292.76"/>
        <lane id=":1443088096_6_1" index="1" speed="27.78" length="16.85" shape="2914.51,3279.39 2914.97,3284.96 2916.32,3289.51 2918.56,3293.07 2921.69,3295.62"/>
    </edge>
    <edge id=":1443088096_8" function="internal">
        <lane id=":1443088096_8_0" index="0" speed="27.78" length="5.86" shape="2904.20,3281.51 2905.83,3282.21 2906.99,3282.09 2907.68,3281.16 2907.91,3279.40"/>
    </edge>
    <edge id=":1443088096_9" function="internal">
        <lane id=":1443088096_9_0" index="0" speed="27.78" length="22.24" shape="2904.20,3281.51 2909.86,3284.89 2913.73,3287.20 2917.62,3289.47 2923.33,3292.76"/>
        <lane id=":1443088096_9_1" index="1" speed="27.78" length="22.24" shape="2902.52,3284.35 2908.19,3287.73 2912.07,3290.05 2915.97,3292.33 2921.69,3295.62"/>
        <lane id=":1443088096_9_2" index="2" speed="27.78" length="22.24" shape="2900.83,3287.18 2906.51,3290.58 2910.40,3292.90 2914.31,3295.19 2920.05,3298.49"/>
    </edge>
    <edge id=":1443088096_12" function="internal">
        <lane id=":1443088096_12_0" index="0" allow="delivery" speed="16.67" length="9.61" shape="2900.83,3287.18 2906.72,3291.66 2908.02,3293.45"/>
    </edge>
    <edge id=":1443088096_13" function="internal">
        <lane id=":1443088096_13_0" index="0" speed="27.78" length="2.41" shape="2900.83,3287.18 2901.47,3288.53 2901.40,3289.45"/>
    </edge>
    <edge id=":1443088096_20" function="internal">
        <lane id=":1443088096_20_0" index="0" speed="16.67" length="16.27" shape="2908.02,3293.45 2910.39,3296.74 2911.85,3302.43 2911.09,3308.73"/>
    </edge>
    <edge id=":1443088096_21" function="internal">
        <lane id=":1443088096_21_0" index="0" speed="27.78" length="2.41" shape="2901.40,3289.45 2900.62,3289.94 2899.14,3290.02"/>
    </edge>
    <edge id=":1443088096_14" function="internal">
        <lane id=":1443088096_14_0" index="0" speed="16.67" length="17.87" shape="2907.91,3307.83 2907.60,3305.50 2905.47,3302.70 2901.52,3299.43 2895.76,3295.69"/>
    </edge>
    <edge id=":1443088096_15" function="internal">
        <lane id=":1443088096_15_0" index="0" speed="16.67" length="28.68" shape="2907.91,3307.83 2909.01,3302.77 2910.08,3295.56 2910.89,3287.38 2911.21,3279.40"/>
    </edge>
    <edge id=":1443088096_16" function="internal">
        <lane id=":1443088096_16_0" index="0" speed="16.67" length="18.23" shape="2907.91,3307.83 2910.16,3301.99 2912.93,3298.48 2916.23,3297.31 2920.05,3298.49"/>
    </edge>
    <edge id=":1443088096_17" function="internal">
        <lane id=":1443088096_17_0" index="0" allow="delivery" speed="5.56" length="2.69" shape="2907.91,3307.83 2909.04,3306.87 2909.95,3306.69 2910.16,3306.88"/>
    </edge>
    <edge id=":1443088096_22" function="internal">
        <lane id=":1443088096_22_0" index="0" speed="5.56" length="2.13" shape="2910.16,3306.88 2910.63,3307.31 2911.09,3308.73"/>
    </edge>
    <edge id=":1443088097_0" function="internal">
        <lane id=":1443088097_0_0" index="0" speed="13.89" length="5.19" shape="4033.74,3257.72 4033.30,3256.46 4032.51,3255.61 4031.38,3255.17 4029.90,3255.15"/>
    </edge>
    <edge id=":1443088097_1" function="internal">
        <lane id=":1443088097_1_0" index="0" speed="13.89" length="9.44" shape="4033.74,3257.72 4032.23,3248.40"/>
    </edge>
    <edge id=":1443088097_2" function="internal">
        <lane id=":1443088097_2_0" index="0" speed="13.89" length="2.41" shape="4033.74,3257.72 4034.33,3256.36 4035.07,3255.80"/>
    </edge>
    <edge id=":1443088097_9" function="internal">
        <lane id=":1443088097_9_0" index="0" speed="13.89" length="2.41" shape="4035.07,3255.80 4035.95,3256.06 4036.99,3257.13"/>
    </edge>
    <edge id=":1443088097_3" function="internal">
        <lane id=":1443088097_3_0" index="0" speed="13.89" length="9.30" shape="4035.50,3247.94 4036.99,3257.13"/>
    </edge>
    <edge id=":1443088097_4" function="internal">
        <lane id=":1443088097_4_0" index="0" speed="13.89" length="5.24" shape="4035.50,3247.94 4035.50,3250.83 4034.56,3252.99"/>
    </edge>
    <edge id=":1443088097_5" function="internal">
        <lane id=":1443088097_5_0" index="0" speed="13.89" length="2.41" shape="4035.50,3247.94 4034.86,3249.28 4034.10,3249.81"/>
    </edge>
    <edge id=":1443088097_10" function="internal">
        <lane id=":1443088097_10_0" index="0" speed="13.89" length="5.24" shape="4034.56,3252.99 4032.70,3254.43 4029.90,3255.15"/>
    </edge>
    <edge id=":1443088097_11" function="internal">
        <lane id=":1443088097_11_0" index="0" speed="13.89" length="2.41" shape="4034.10,3249.81 4033.22,3249.51 4032.23,3248.40"/>
    </edge>
    <edge id=":1443088097_6" function="internal">
        <lane id=":1443088097_6_0" index="0" speed="13.89" length="5.04" shape="4029.54,3251.87 4030.89,3251.52 4031.78,3250.83 4032.23,3249.79 4032.23,3248.40"/>
    </edge>
    <edge id=":1443088097_7" function="internal">
        <lane id=":1443088097_7_0" index="0" speed="13.89" length="10.23" shape="4029.54,3251.87 4032.39,3251.93 4034.58,3252.83 4036.11,3254.57 4036.99,3257.13"/>
    </edge>
    <edge id=":1443088097_8" function="internal">
        <lane id=":1443088097_8_0" index="0" speed="13.89" length="4.82" shape="4029.54,3251.87 4030.86,3252.55 4031.36,3253.33 4031.04,3254.19 4029.90,3255.15"/>
    </edge>
    <edge id=":1443088101_0" function="internal">
        <lane id=":1443088101_0_0" index="0" speed="27.78" length="5.03" shape="3724.96,2339.47 3724.63,2338.13 3723.94,2337.23 3722.91,2336.77 3721.52,2336.75"/>
    </edge>
    <edge id=":1443088101_1" function="internal">
        <lane id=":1443088101_1_0" index="0" speed="27.78" length="19.39" shape="3724.96,2339.47 3724.38,2333.74 3724.00,2329.82 3723.63,2325.90 3723.09,2320.17"/>
        <lane id=":1443088101_1_1" index="1" speed="27.78" length="19.39" shape="3728.24,2339.14 3727.67,2333.42 3727.28,2329.50 3726.91,2325.58 3726.37,2319.86"/>
    </edge>
    <edge id=":1443088101_3" function="internal">
        <lane id=":1443088101_3_0" index="0" speed="27.78" length="6.51" shape="3728.24,2339.14 3728.42,2334.78 3729.32,2332.84"/>
    </edge>
    <edge id=":1443088101_4" function="internal">
        <lane id=":1443088101_4_0" index="0" speed="27.78" length="2.41" shape="3728.24,2339.14 3728.94,2337.83 3729.72,2337.33"/>
    </edge>
    <edge id=":1443088101_18" function="internal">
        <lane id=":1443088101_18_0" index="0" speed="27.78" length="9.49" shape="3729.32,2332.84 3729.95,2331.48 3732.82,2329.27 3737.04,2328.13"/>
    </edge>
    <edge id=":1443088101_19" function="internal">
        <lane id=":1443088101_19_0" index="0" speed="27.78" length="2.41" shape="3729.72,2337.33 3730.58,2337.66 3731.52,2338.81"/>
    </edge>
    <edge id=":1443088101_5" function="internal">
        <lane id=":1443088101_5_0" index="0" speed="27.78" length="5.52" shape="3737.84,2334.68 3736.39,2335.07 3735.40,2335.84 3734.87,2336.97 3734.81,2338.48"/>
    </edge>
    <edge id=":1443088101_6" function="internal">
        <lane id=":1443088101_6_0" index="0" speed="27.78" length="16.47" shape="3737.44,2331.40 3732.58,2332.00 3729.26,2332.42 3725.95,2332.84 3721.10,2333.48"/>
    </edge>
    <edge id=":1443088101_7" function="internal">
        <lane id=":1443088101_7_0" index="0" speed="27.78" length="7.55" shape="3737.44,2331.40 3733.05,2331.14 3730.36,2329.50"/>
    </edge>
    <edge id=":1443088101_8" function="internal">
        <lane id=":1443088101_8_0" index="0" speed="27.78" length="2.64" shape="3737.44,2331.40 3736.11,2330.74 3735.60,2329.97 3735.68,2329.75"/>
    </edge>
    <edge id=":1443088101_20" function="internal">
        <lane id=":1443088101_20_0" index="0" speed="27.78" length="10.72" shape="3730.36,2329.50 3729.74,2329.12 3727.51,2325.36 3726.37,2319.86"/>
    </edge>
    <edge id=":1443088101_21" function="internal">
        <lane id=":1443088101_21_0" index="0" speed="27.78" length="2.18" shape="3735.68,2329.75 3735.91,2329.10 3737.04,2328.13"/>
    </edge>
    <edge id=":1443088101_9" function="internal">
        <lane id=":1443088101_9_0" index="0" speed="27.78" length="7.49" shape="3732.94,2319.24 3733.39,2321.84 3734.15,2323.64 3735.23,2324.65 3736.63,2324.85"/>
    </edge>
    <edge id=":1443088101_10" function="internal">
        <lane id=":1443088101_10_0" index="0" speed="27.78" length="19.34" shape="3732.94,2319.24 3733.48,2324.95 3733.85,2328.86 3734.23,2332.77 3734.81,2338.48"/>
        <lane id=":1443088101_10_1" index="1" speed="27.78" length="19.34" shape="3729.66,2319.55 3730.20,2325.27 3730.57,2329.18 3730.95,2333.09 3731.52,2338.81"/>
    </edge>
    <edge id=":1443088101_12" function="internal">
        <lane id=":1443088101_12_0" index="0" speed="27.78" length="8.23" shape="3729.66,2319.55 3729.57,2325.16 3728.71,2327.63"/>
    </edge>
    <edge id=":1443088101_13" function="internal">
        <lane id=":1443088101_13_0" index="0" speed="27.78" length="2.41" shape="3729.66,2319.55 3728.95,2320.86 3728.17,2321.35"/>
    </edge>
    <edge id=":1443088101_22" function="internal">
        <lane id=":1443088101_22_0" index="0" speed="27.78" length="10.19" shape="3728.71,2327.63 3728.11,2329.36 3725.29,2332.13 3721.10,2333.48"/>
    </edge>
    <edge id=":1443088101_23" function="internal">
        <lane id=":1443088101_23_0" index="0" speed="27.78" length="2.41" shape="3728.17,2321.35 3727.31,2321.01 3726.37,2319.86"/>
    </edge>
    <edge id=":1443088101_14" function="internal">
        <lane id=":1443088101_14_0" index="0" speed="27.78" length="5.41" shape="3719.82,2323.66 3721.35,2323.27 3722.41,2322.55 3722.99,2321.52 3723.09,2320.17"/>
    </edge>
    <edge id=":1443088101_15" function="internal">
        <lane id=":1443088101_15_0" index="0" speed="27.78" length="16.94" shape="3720.24,2326.93 3725.21,2326.80 3728.64,2327.51 3732.06,2328.22 3737.04,2328.13"/>
    </edge>
    <edge id=":1443088101_16" function="internal">
        <lane id=":1443088101_16_0" index="0" speed="27.78" length="6.45" shape="3720.67,2330.20 3725.04,2330.26 3726.94,2331.10"/>
    </edge>
    <edge id=":1443088101_17" function="internal">
        <lane id=":1443088101_17_0" index="0" speed="27.78" length="2.41" shape="3720.67,2330.20 3722.00,2330.86 3722.52,2331.63"/>
    </edge>
    <edge id=":1443088101_24" function="internal">
        <lane id=":1443088101_24_0" index="0" speed="27.78" length="9.45" shape="3726.94,2331.10 3728.31,2331.71 3730.47,2334.56 3731.52,2338.81"/>
    </edge>
    <edge id=":1443088101_25" function="internal">
        <lane id=":1443088101_25_0" index="0" speed="27.78" length="2.41" shape="3722.52,2331.63 3722.22,2332.50 3721.10,2333.48"/>
    </edge>
    <edge id=":1443088109_0" function="internal">
        <lane id=":1443088109_0_0" index="0" speed="20.83" length="5.21" shape="3340.66,2388.41 3340.44,2386.96 3339.81,2386.01 3338.76,2385.56 3337.30,2385.60"/>
    </edge>
    <edge id=":1443088109_1" function="internal">
        <lane id=":1443088109_1_0" index="0" speed="13.89" length="19.93" shape="3340.66,2388.41 3340.53,2383.89 3340.24,2378.46 3339.85,2373.02 3339.45,2368.52"/>
    </edge>
    <edge id=":1443088109_2" function="internal">
        <lane id=":1443088109_2_0" index="0" speed="20.83" length="13.89" shape="3340.66,2388.41 3341.03,2383.91 3342.21,2380.59 3344.18,2378.44 3346.96,2377.47"/>
    </edge>
    <edge id=":1443088109_3" function="internal">
        <lane id=":1443088109_3_0" index="0" speed="13.89" length="4.82" shape="3340.66,2388.41 3341.48,2387.17 3342.30,2386.75 3343.13,2387.16 3343.96,2388.39"/>
    </edge>
    <edge id=":1443088109_4" function="internal">
        <lane id=":1443088109_4_0" index="0" speed="20.83" length="6.44" shape="3347.75,2384.02 3346.09,2384.47 3344.90,2385.35 3344.19,2386.65 3343.96,2388.39"/>
    </edge>
    <edge id=":1443088109_5" function="internal">
        <lane id=":1443088109_5_0" index="0" speed="27.78" length="10.66" shape="3347.75,2384.02 3344.64,2384.41 3342.51,2384.71 3340.39,2385.06 3337.30,2385.60"/>
        <lane id=":1443088109_5_1" index="1" speed="27.78" length="10.66" shape="3347.35,2380.75 3344.19,2381.14 3342.02,2381.44 3339.87,2381.80 3336.73,2382.36"/>
    </edge>
    <edge id=":1443088109_7" function="internal">
        <lane id=":1443088109_7_0" index="0" speed="20.83" length="4.11" shape="3347.35,2380.75 3344.40,2380.28 3343.59,2379.51"/>
    </edge>
    <edge id=":1443088109_8" function="internal">
        <lane id=":1443088109_8_0" index="0" speed="27.78" length="2.41" shape="3347.35,2380.75 3346.03,2380.08 3345.52,2379.31"/>
    </edge>
    <edge id=":1443088109_19" function="internal">
        <lane id=":1443088109_19_0" index="0" speed="20.83" length="12.04" shape="3343.59,2379.51 3342.10,2378.09 3340.45,2374.17 3339.45,2368.52"/>
    </edge>
    <edge id=":1443088109_20" function="internal">
        <lane id=":1443088109_20_0" index="0" speed="27.78" length="2.41" shape="3345.52,2379.31 3345.83,2378.44 3346.96,2377.47"/>
    </edge>
    <edge id=":1443088109_9" function="internal">
        <lane id=":1443088109_9_0" index="0" speed="20.83" length="5.02" shape="3342.73,2368.18 3343.07,2369.52 3343.75,2370.42 3344.78,2370.89 3346.16,2370.92"/>
    </edge>
    <edge id=":1443088109_10" function="internal">
        <lane id=":1443088109_10_0" index="0" speed="13.89" length="20.25" shape="3342.73,2368.18 3343.14,2372.74 3343.53,2378.28 3343.83,2383.82 3343.96,2388.39"/>
    </edge>
    <edge id=":1443088109_11" function="internal">
        <lane id=":1443088109_11_0" index="0" speed="20.83" length="16.98" shape="3342.73,2368.18 3342.85,2373.90 3341.89,2378.16 3339.85,2380.98 3336.73,2382.36"/>
    </edge>
    <edge id=":1443088109_12" function="internal">
        <lane id=":1443088109_12_0" index="0" speed="13.89" length="4.82" shape="3342.73,2368.18 3342.04,2369.50 3341.26,2369.99 3340.40,2369.67 3339.45,2368.52"/>
    </edge>
    <edge id=":1443088109_13" function="internal">
        <lane id=":1443088109_13_0" index="0" speed="20.83" length="6.71" shape="3335.00,2372.61 3337.07,2372.03 3338.50,2371.16 3339.30,2369.99 3339.45,2368.52"/>
    </edge>
    <edge id=":1443088109_14" function="internal">
        <lane id=":1443088109_14_0" index="0" speed="27.78" length="11.11" shape="3335.00,2372.61 3338.30,2372.02 3340.56,2371.65 3342.83,2371.33 3346.16,2370.92"/>
        <lane id=":1443088109_14_1" index="1" speed="27.78" length="11.11" shape="3335.58,2375.86 3338.83,2375.28 3341.05,2374.91 3343.29,2374.60 3346.56,2374.19"/>
        <lane id=":1443088109_14_2" index="2" speed="27.78" length="11.11" shape="3336.15,2379.11 3339.35,2378.54 3341.54,2378.18 3343.74,2377.87 3346.96,2377.47"/>
    </edge>
    <edge id=":1443088109_17" function="internal">
        <lane id=":1443088109_17_0" index="0" speed="20.83" length="4.95" shape="3336.15,2379.11 3339.55,2379.17 3340.85,2380.02"/>
    </edge>
    <edge id=":1443088109_18" function="internal">
        <lane id=":1443088109_18_0" index="0" speed="27.78" length="2.41" shape="3336.15,2379.11 3337.51,2379.70 3338.06,2380.44"/>
    </edge>
    <edge id=":1443088109_21" function="internal">
        <lane id=":1443088109_21_0" index="0" speed="20.83" length="9.35" shape="3340.85,2380.02 3341.98,2380.74 3343.45,2383.82 3343.96,2388.39"/>
    </edge>
    <edge id=":1443088109_22" function="internal">
        <lane id=":1443088109_22_0" index="0" speed="27.78" length="2.41" shape="3338.06,2380.44 3337.80,2381.33 3336.73,2382.36"/>
    </edge>
    <edge id=":1443088116_0" function="internal">
        <lane id=":1443088116_0_0" index="0" speed="27.78" length="8.97" shape="3741.70,2478.05 3740.53,2469.24"/>
        <lane id=":1443088116_0_1" index="1" speed="27.78" length="8.97" shape="3744.98,2477.70 3743.79,2468.72"/>
    </edge>
    <edge id=":1443088116_2" function="internal">
        <lane id=":1443088116_2_0" index="0" speed="20.83" length="4.30" shape="3744.98,2477.70 3745.28,2474.90 3746.16,2473.70"/>
    </edge>
    <edge id=":1443088116_3" function="internal">
        <lane id=":1443088116_3_0" index="0" speed="27.78" length="2.41" shape="3744.98,2477.70 3745.67,2476.38 3746.44,2475.88"/>
    </edge>
    <edge id=":1443088116_11" function="internal">
        <lane id=":1443088116_11_0" index="0" speed="20.83" length="8.68" shape="3746.16,2473.70 3746.87,2472.73 3749.73,2471.20 3753.87,2470.30"/>
    </edge>
    <edge id=":1443088116_12" function="internal">
        <lane id=":1443088116_12_0" index="0" speed="27.78" length="2.41" shape="3746.44,2475.88 3747.31,2476.21 3748.26,2477.35"/>
    </edge>
    <edge id=":1443088116_4" function="internal">
        <lane id=":1443088116_4_0" index="0" speed="20.83" length="4.98" shape="3754.27,2473.57 3752.95,2473.93 3752.06,2474.62 3751.59,2475.64 3751.54,2477.00"/>
    </edge>
    <edge id=":1443088116_5" function="internal">
        <lane id=":1443088116_5_0" index="0" speed="20.83" length="12.90" shape="3754.27,2473.57 3750.04,2473.71 3746.89,2472.94 3744.80,2471.28 3743.79,2468.72"/>
    </edge>
    <edge id=":1443088116_6" function="internal">
        <lane id=":1443088116_6_0" index="0" speed="13.89" length="4.82" shape="3754.27,2473.57 3752.94,2472.90 3752.43,2472.14 3752.74,2471.27 3753.87,2470.30"/>
    </edge>
    <edge id=":1443088116_7" function="internal">
        <lane id=":1443088116_7_0" index="0" speed="20.83" length="5.01" shape="3750.30,2467.67 3750.71,2468.96 3751.43,2469.83 3752.49,2470.27 3753.87,2470.30"/>
    </edge>
    <edge id=":1443088116_8" function="internal">
        <lane id=":1443088116_8_0" index="0" speed="27.78" length="9.33" shape="3750.30,2467.67 3751.54,2477.00"/>
        <lane id=":1443088116_8_1" index="1" speed="27.78" length="9.33" shape="3747.04,2468.19 3748.26,2477.35"/>
    </edge>
    <edge id=":1443088116_10" function="internal">
        <lane id=":1443088116_10_0" index="0" speed="27.78" length="2.51" shape="3747.04,2468.19 3746.43,2469.55 3745.68,2470.08 3745.58,2470.05"/>
    </edge>
    <edge id=":1443088116_13" function="internal">
        <lane id=":1443088116_13_0" index="0" speed="27.78" length="2.31" shape="3745.58,2470.05 3744.80,2469.81 3743.79,2468.72"/>
    </edge>
    <edge id=":1443088122_0" function="internal">
        <lane id=":1443088122_0_0" index="0" speed="13.89" length="5.01" shape="3422.74,3756.97 3421.47,3756.43 3420.34,3756.43 3419.35,3756.97 3418.49,3758.04"/>
    </edge>
    <edge id=":1443088122_1" function="internal">
        <lane id=":1443088122_1_0" index="0" speed="13.89" length="10.32" shape="3422.74,3756.97 3420.54,3755.17 3419.42,3753.11 3419.39,3750.78 3420.45,3748.18"/>
    </edge>
    <edge id=":1443088122_2" function="internal">
        <lane id=":1443088122_2_0" index="0" speed="13.89" length="4.82" shape="3422.74,3756.97 3422.11,3755.62 3422.18,3754.70 3422.96,3754.21 3424.45,3754.14"/>
    </edge>
    <edge id=":1443088122_3" function="internal">
        <lane id=":1443088122_3_0" index="0" speed="13.89" length="5.05" shape="3423.30,3749.85 3422.79,3751.12 3422.81,3752.25 3423.36,3753.26 3424.45,3754.14"/>
    </edge>
    <edge id=":1443088122_4" function="internal">
        <lane id=":1443088122_4_0" index="0" speed="13.89" length="9.50" shape="3423.30,3749.85 3418.49,3758.04"/>
    </edge>
    <edge id=":1443088122_5" function="internal">
        <lane id=":1443088122_5_0" index="0" speed="13.89" length="2.41" shape="3423.30,3749.85 3421.96,3750.50 3421.04,3750.44"/>
    </edge>